* File: falladderdd.pex.netlist.pex
* Created: Wed Dec  6 20:23:44 2023
* Program "Calibre xRC"
* Version "v2023.3_29.15"
* Nominal Temperature: 25C
* Circuit Temperature: 25C
* 
.subckt PM_falladderdd_Xcmos_nand_2.N_1 1 3 6 17 22 24 26 27 31 32 39 40 43 46
+ 50 51
c87 32 Gnd 2.88273e-20
c88 27 Gnd 4.4121e-19
c89 24 Gnd 1.94744e-19
c90 22 Gnd 3.24091e-20
c91 6 Gnd 3.156e-19
c92 3 Gnd 1.33014e-19
r93 50 51 0.173059
r94 48 51 0.455479
r95 46 48 0.17229
r96 43 44 0.0584615
r97 39 40 0.172675
r98 34 44 0.0845051
r99 34 40 0.55137
r100 31 50 2
r101 31 32 0.267714
r102 29 46 2
r103 27 29 0.108917
r104 24 39 2
r105 24 26 0.226331
r106 22 32 0.96338
r107 20 43 2
r108 20 22 0.267714
r109 17 27 0.0837873
r110 10 26 0.274444
r111 8 10 0.333333
r112 6 8 0.04675
r113 5 17 0.405333
r114 3 5 0.333333
r115 1 3 0.046875
.ends

.subckt PM_falladderdd_Xcmos_nand_1.N_1 1 3 6 17 22 24 26 27 31 32 39 40 43 46
+ 50 51
c81 51 Gnd 1.60726e-19
c82 32 Gnd 2.88273e-20
c83 31 Gnd 1.54979e-19
c84 27 Gnd 2.45735e-19
c85 24 Gnd 1.94744e-19
c86 22 Gnd 3.24091e-20
c87 6 Gnd 3.156e-19
c88 3 Gnd 1.33014e-19
r89 50 51 0.173059
r90 48 51 0.455479
r91 46 48 0.17229
r92 43 44 0.0584615
r93 39 40 0.172675
r94 34 44 0.0845051
r95 34 40 0.55137
r96 31 50 2
r97 31 32 0.267714
r98 29 46 2
r99 27 29 0.108917
r100 24 39 2
r101 24 26 0.226331
r102 22 32 0.96338
r103 20 43 2
r104 20 22 0.267714
r105 17 27 0.0837873
r106 10 26 0.274444
r107 8 10 0.333333
r108 6 8 0.04675
r109 5 17 0.405333
r110 3 5 0.333333
r111 1 3 0.046875
.ends

.subckt PM_falladderdd_Xcmos_nand_3.N_1 1 3 6 17 22 24 26 27 31 32 39 40 43 46
+ 50 51
c74 32 Gnd 2.88273e-20
c75 27 Gnd 2.45735e-19
c76 24 Gnd 1.94744e-19
c77 22 Gnd 3.24091e-20
c78 6 Gnd 3.156e-19
c79 3 Gnd 2.13555e-19
r80 50 51 0.173059
r81 48 51 0.455479
r82 46 48 0.17229
r83 43 44 0.0584615
r84 39 40 0.172675
r85 34 44 0.0845051
r86 34 40 0.55137
r87 31 50 2
r88 31 32 0.267714
r89 29 46 2
r90 27 29 0.108917
r91 24 39 2
r92 24 26 0.226331
r93 22 32 0.96338
r94 20 43 2
r95 20 22 0.267714
r96 17 27 0.0837873
r97 10 26 0.274444
r98 8 10 0.333333
r99 6 8 0.04675
r100 5 17 0.405333
r101 3 5 0.333333
r102 1 3 0.046875
.ends

.subckt PM_falladderdd_XDPL_xor_1.N_1 2 4 8 10 12 13 14 17 26 32 40 42 46 49 50
+ 52 53 59 60 62 65 69 70
c176 69 Gnd 4.50114e-20
c177 65 Gnd 1.45573e-19
c178 60 Gnd 1.93438e-19
c179 59 Gnd 1.22801e-19
c180 52 Gnd 5.86741e-19
c181 42 Gnd 2.3472e-19
c182 40 Gnd 6.32061e-20
c183 32 Gnd 3.1895e-20
c184 26 Gnd 8.76725e-20
c185 17 Gnd 2.30188e-19
c186 14 Gnd 5.5158e-20
c187 13 Gnd 1.09615e-19
c188 12 Gnd 4.36484e-19
c189 10 Gnd 3.47719e-19
c190 4 Gnd 1.33415e-19
r191 69 70 0.163198
r192 65 67 0.0679012
r193 62 64 0.127489
r194 60 73 0.163211
r195 60 70 0.474684
r196 59 65 0.0919017
r197 58 62 0.0786399
r198 58 59 4.62338
r199 57 69 2
r200 52 73 2
r201 52 53 0.248646
r202 48 64 2
r203 48 50 0.225746
r204 48 49 0.226916
r205 46 53 2.0443
r206 44 67 2
r207 44 46 0.247477
r208 40 50 1.48284
r209 35 42 0.0418175
r210 35 49 0.565778
r211 32 42 0.160909
r212 29 42 0.160909
r213 26 40 1.1
r214 26 28 0.200208
r215 17 57 0.108744
r216 16 17 1
r217 14 16 0.222226
r218 13 28 0.685
r219 12 29 2.2116
r220 10 12 1
r221 8 10 0.09375
r222 6 32 0.00422222
r223 4 6 0.333333
r224 2 4 0.046875
.ends

.subckt PM_falladderdd_XDPL_xor_1.N_2 2 4 8 10 12 14 18 27 31 39 42 45 52 54 56
+ 57 62 64 69 73 77 81 83 87 90 93
c184 90 Gnd 1.75698e-19
c185 77 Gnd 1.57355e-19
c186 73 Gnd 2.8846e-19
c187 69 Gnd 9.65717e-20
c188 64 Gnd 9.33117e-20
c189 62 Gnd 1.24771e-19
c190 56 Gnd 3.18027e-19
c191 54 Gnd 3.41752e-19
c192 52 Gnd 1.48695e-19
c193 45 Gnd 6.58462e-20
c194 42 Gnd 5.2378e-20
c195 39 Gnd 8.47981e-20
c196 27 Gnd 8.70463e-20
c197 14 Gnd 9.09036e-20
c198 12 Gnd 3.37876e-19
c199 10 Gnd 2.07664e-19
c200 4 Gnd 1.22161e-19
r201 93 94 0.116433
r202 90 91 0.0834604
r203 85 87 0.118846
r204 83 94 0.0659949
r205 82 87 0.0674749
r206 82 83 2.99107
r207 81 87 0.0674749
r208 80 91 0.0685733
r209 80 81 1.35714
r210 77 79 0.00572519
r211 73 75 0.00572519
r212 69 71 0.0019084
r213 64 69 2
r214 60 77 2
r215 60 62 0.261881
r216 56 73 2
r217 56 57 0.228661
r218 52 67 0.207346
r219 52 62 1.03589
r220 51 54 0.0430717
r221 51 57 1.88292
r222 47 54 0.159418
r223 45 54 0.159418
r224 44 71 2
r225 42 85 2
r226 42 44 0.0019084
r227 39 79 2
r228 36 90 2
r229 36 39 0.00384615
r230 31 93 2
r231 31 75 2
r232 27 67 1.1
r233 27 28 0.200208
r234 18 28 0.815
r235 17 64 0.0732815
r236 16 17 1
r237 14 16 0.222691
r238 12 47 1.6796
r239 10 12 1
r240 8 10 0.09375
r241 6 45 0.540444
r242 4 6 0.333333
r243 2 4 0.046875
.ends

.subckt PM_falladderdd_XDPL_xor_2.N_1 2 4 8 10 12 13 14 17 26 32 40 42 46 49 50
+ 52 53 59 60 62 65 69 70
c177 69 Gnd 4.50114e-20
c178 65 Gnd 1.45573e-19
c179 60 Gnd 1.93438e-19
c180 59 Gnd 1.22801e-19
c181 52 Gnd 5.86741e-19
c182 42 Gnd 2.3472e-19
c183 40 Gnd 6.32061e-20
c184 32 Gnd 3.1895e-20
c185 26 Gnd 8.76725e-20
c186 17 Gnd 2.30188e-19
c187 14 Gnd 5.5158e-20
c188 13 Gnd 1.09615e-19
c189 12 Gnd 4.47963e-19
c190 10 Gnd 4.23905e-19
c191 4 Gnd 1.34e-19
r192 69 70 0.163198
r193 65 67 0.0679012
r194 62 64 0.127489
r195 60 73 0.163211
r196 60 70 0.474684
r197 59 65 0.0919017
r198 58 62 0.0786399
r199 58 59 4.62338
r200 57 69 2
r201 52 73 2
r202 52 53 0.248646
r203 48 64 2
r204 48 50 0.225746
r205 48 49 0.226916
r206 46 53 2.0443
r207 44 67 2
r208 44 46 0.247477
r209 40 50 1.48284
r210 35 42 0.0418175
r211 35 49 0.565778
r212 32 42 0.160909
r213 29 42 0.160909
r214 26 40 1.1
r215 26 28 0.200208
r216 17 57 0.108744
r217 16 17 1
r218 14 16 0.222226
r219 13 28 0.685
r220 12 29 2.2116
r221 10 12 1
r222 8 10 0.09375
r223 6 32 0.00422222
r224 4 6 0.333333
r225 2 4 0.046875
.ends

.subckt PM_falladderdd_XDPL_xor_2.N_2 2 4 8 10 12 14 18 27 31 39 42 45 52 54 56
+ 57 62 64 69 73 77 81 83 87 90 93
c180 90 Gnd 1.87178e-19
c181 77 Gnd 1.56471e-19
c182 73 Gnd 2.8846e-19
c183 69 Gnd 9.65717e-20
c184 64 Gnd 9.33117e-20
c185 62 Gnd 1.24771e-19
c186 56 Gnd 3.18027e-19
c187 54 Gnd 3.41752e-19
c188 52 Gnd 1.48695e-19
c189 45 Gnd 6.58462e-20
c190 42 Gnd 5.2378e-20
c191 39 Gnd 8.47981e-20
c192 27 Gnd 8.70463e-20
c193 14 Gnd 9.09036e-20
c194 12 Gnd 3.37876e-19
c195 10 Gnd 2.07664e-19
c196 4 Gnd 1.22161e-19
r197 93 94 0.116433
r198 90 91 0.0834604
r199 85 87 0.118846
r200 83 94 0.0659949
r201 82 87 0.0674749
r202 82 83 2.99107
r203 81 87 0.0674749
r204 80 91 0.0685733
r205 80 81 1.35714
r206 77 79 0.00572519
r207 73 75 0.00572519
r208 69 71 0.0019084
r209 64 69 2
r210 60 77 2
r211 60 62 0.261881
r212 56 73 2
r213 56 57 0.228661
r214 52 67 0.207346
r215 52 62 1.03589
r216 51 54 0.0430717
r217 51 57 1.88292
r218 47 54 0.159418
r219 45 54 0.159418
r220 44 71 2
r221 42 85 2
r222 42 44 0.0019084
r223 39 79 2
r224 36 90 2
r225 36 39 0.00384615
r226 31 93 2
r227 31 75 2
r228 27 67 1.1
r229 27 28 0.200208
r230 18 28 0.815
r231 17 64 0.0732815
r232 16 17 1
r233 14 16 0.222691
r234 12 47 1.6796
r235 10 12 1
r236 8 10 0.09375
r237 6 45 0.540444
r238 4 6 0.333333
r239 2 4 0.046875
.ends

.subckt PM_falladderdd_Gnd 3 10 41 43 45 47 49 54 55 60 98 100 102 104 106 111
+ 114 117 155 157 159 161 163 168 171 178 188 196 248 252 259 260 266 270 273
+ 278 280 282 287 290 291 294 298 301 302 311 321 329 381 385 392 393 399 401
+ 403 406 411 413 415 420 423 424 427 431 434 435 495 508 512 513 521 526 527
+ 540 541 546 549 550 556 558 564 565 574 575 578 589 597 609 610 621 622
c764 622 Gnd 3.73227e-19
c765 621 Gnd 0.0252864f
c766 610 Gnd 5.79334e-19
c767 609 Gnd 0.0211919f
c768 597 Gnd 0.0138189f
c769 589 Gnd 1.53862e-19
c770 578 Gnd 4.3626e-21
c771 575 Gnd 0.00160409f
c772 574 Gnd 0.012682f
c773 565 Gnd 0.00440161f
c774 564 Gnd 0.0187786f
c775 561 Gnd 5.5168e-21
c776 556 Gnd 1.47961e-19
c777 550 Gnd 1.0792e-20
c778 540 Gnd 1.0792e-20
c779 527 Gnd 3.48561e-20
c780 513 Gnd 3.50113e-20
c781 512 Gnd 0.00186297f
c782 435 Gnd 1.45487e-19
c783 434 Gnd 1.1339e-19
c784 431 Gnd 0.00141262f
c785 427 Gnd 0.0150874f
c786 424 Gnd 7.76614e-19
c787 423 Gnd 0.0221673f
c788 420 Gnd 0.0204004f
c789 415 Gnd 8.70236e-19
c790 413 Gnd 0.00389946f
c791 411 Gnd 0.0019248f
c792 401 Gnd 4.78805e-20
c793 399 Gnd 0.00994413f
c794 385 Gnd 0.00837261f
c795 381 Gnd 1.19194e-19
c796 329 Gnd 1.93118e-19
c797 321 Gnd 2.42177e-19
c798 311 Gnd 1.93118e-19
c799 302 Gnd 1.45487e-19
c800 301 Gnd 0.0145218f
c801 298 Gnd 0.00141262f
c802 294 Gnd 0.0145537f
c803 291 Gnd 5.1779e-19
c804 290 Gnd 0.0221673f
c805 287 Gnd 0.0220396f
c806 282 Gnd 9.39387e-19
c807 280 Gnd 0.00418077f
c808 278 Gnd 0.00186243f
c809 273 Gnd 1.07759e-19
c810 266 Gnd 0.00994413f
c811 259 Gnd 8.16307e-20
c812 252 Gnd 0.00837261f
c813 248 Gnd 1.19194e-19
c814 196 Gnd 1.93118e-19
c815 188 Gnd 2.42177e-19
c816 178 Gnd 1.93118e-19
c817 171 Gnd 0.00456259f
c818 168 Gnd 0.00889039f
c819 163 Gnd 1.04247e-19
c820 161 Gnd 0.0161371f
c821 159 Gnd 0.00190192f
c822 157 Gnd 0.0357947f
c823 155 Gnd 0.00985118f
c824 117 Gnd 1.54172e-19
c825 114 Gnd 0.00473926f
c826 111 Gnd 0.00889039f
c827 106 Gnd 1.04247e-19
c828 102 Gnd 0.00190192f
c829 100 Gnd 0.0357947f
c830 98 Gnd 0.00440881f
c831 60 Gnd 1.54172e-19
c832 55 Gnd 5.68702e-19
c833 54 Gnd 0.00883826f
c834 49 Gnd 1.04247e-19
c835 45 Gnd 0.00190192f
c836 43 Gnd 0.0357947f
c837 41 Gnd 0.00440881f
c838 10 Gnd 3.07939e-19
c839 3 Gnd 1.54172e-19
r840 619 621 1.68243
r841 617 619 0.171005
r842 607 609 1.68243
r843 605 607 0.171005
r844 600 602 0.171005
r845 596 597 0.114947
r846 589 591 0.171005
r847 575 611 0.0720171
r848 574 575 9.04321
r849 564 602 1.68243
r850 558 592 0.0720171
r851 557 597 0.0736611
r852 557 558 9.04321
r853 556 596 0.0843304
r854 556 591 5.85811
r855 549 617 2
r856 549 550 0.259928
r857 541 550 10.7068
r858 539 605 2
r859 539 541 0.259928
r860 539 540 0.259928
r861 532 600 2
r862 532 534 0.259343
r863 524 589 2
r864 524 526 0.259343
r865 512 513 8.05189
r866 507 527 0.0923567
r867 505 526 1.61757
r868 495 540 4.18514
r869 495 534 7.41513
r870 435 581 0.0138462
r871 431 433 0.16469
r872 427 429 0.158539
r873 424 429 0.612805
r874 423 424 0.159308
r875 418 578 0.00153846
r876 417 574 0.159982
r877 416 611 0.00153846
r878 415 437 0.148768
r879 414 434 0.148517
r880 414 415 0.561111
r881 413 581 0.076347
r882 413 433 0.682692
r883 411 578 0.0826736
r884 410 420 0.171005
r885 410 411 0.679054
r886 406 437 2
r887 403 431 2
r888 401 546 0.228661
r889 401 434 2
r890 399 423 2
r891 396 420 2
r892 393 546 3.47124
r893 392 521 0.648989
r894 391 427 2
r895 391 393 0.226736
r896 391 392 0.227736
r897 389 521 0.353437
r898 389 512 0.271525
r899 389 417 2
r900 385 396 0.0650222
r901 383 416 2
r902 382 383 0.970462
r903 382 418 2
r904 381 382 2.82954
r905 381 435 2
r906 362 406 0.0882655
r907 352 403 0.0762346
r908 340 399 0.023043
r909 339 399 0.416869
r910 337 340 1
r911 331 339 1
r912 329 331 0.0935
r913 322 396 0.0300565
r914 321 385 0.348756
r915 319 322 1
r916 313 321 1
r917 311 313 0.0935
r918 302 567 0.0138462
r919 298 300 0.16469
r920 294 296 0.158539
r921 291 296 0.612805
r922 290 291 0.159308
r923 285 561 0.00153846
r924 284 597 0.00113809
r925 283 592 0.00115385
r926 282 304 0.148768
r927 281 301 0.148517
r928 281 282 0.561111
r929 280 567 0.076347
r930 280 300 0.682692
r931 278 561 0.0826736
r932 277 287 0.171005
r933 277 278 0.679054
r934 273 304 2
r935 270 298 2
r936 268 513 0.262027
r937 268 508 0.245232
r938 268 301 2
r939 266 290 2
r940 263 287 2
r941 260 508 3.44135
r942 259 507 0.88809
r943 258 294 2
r944 258 260 0.226736
r945 258 259 0.227736
r946 256 527 0.125108
r947 256 284 2
r948 252 263 0.0650222
r949 250 283 2
r950 249 250 0.970462
r951 249 285 2
r952 248 249 2.82954
r953 248 302 2
r954 229 273 0.0882655
r955 219 270 0.0762346
r956 207 266 0.023043
r957 206 266 0.416869
r958 204 207 1
r959 198 206 1
r960 196 198 0.0935
r961 189 263 0.0300565
r962 188 252 0.348756
r963 186 189 1
r964 180 188 1
r965 178 180 0.0935
r966 171 622 0.17229
r967 171 621 0.17139
r968 169 622 1.53425
r969 168 169 0.172675
r970 165 171 2
r971 163 553 0.152807
r972 163 168 2
r973 160 165 0.107432
r974 159 161 0.213729
r975 159 160 0.584615
r976 157 553 0.0925322
r977 155 165 0.106297
r978 143 157 0.261778
r979 141 143 0.333333
r980 132 155 0.354667
r981 130 132 0.333333
r982 121 161 0.375778
r983 119 121 0.333333
r984 117 119 0.04675
r985 114 610 0.17229
r986 114 609 0.17139
r987 112 610 1.53425
r988 111 112 0.172675
r989 108 114 2
r990 106 543 0.152807
r991 106 111 2
r992 103 108 0.107432
r993 102 104 0.213729
r994 102 103 0.584615
r995 100 543 0.0925322
r996 98 108 0.106297
r997 86 100 0.261778
r998 84 86 0.333333
r999 75 98 0.354667
r1000 73 75 0.333333
r1001 64 104 0.375778
r1002 62 64 0.333333
r1003 60 62 0.04675
r1004 57 565 0.176172
r1005 57 564 0.171414
r1006 55 565 1.5274
r1007 54 55 0.172675
r1008 51 57 2
r1009 49 536 0.152807
r1010 49 505 0.259898
r1011 49 54 2
r1012 46 51 0.107432
r1013 45 47 0.213729
r1014 45 46 0.584615
r1015 43 536 0.0925322
r1016 41 51 0.106297
r1017 29 43 0.261778
r1018 27 29 0.333333
r1019 18 41 0.354667
r1020 16 18 0.333333
r1021 10 362 1
r1022 10 352 1
r1023 10 337 0.0118182
r1024 10 319 0.0118182
r1025 10 229 1
r1026 10 219 1
r1027 10 204 0.0118182
r1028 10 186 0.0118182
r1029 10 141 0.0113636
r1030 10 130 0.0113636
r1031 10 84 0.0113636
r1032 10 73 0.0113636
r1033 10 27 0.0113636
r1034 10 16 0.0113636
r1035 7 47 0.375778
r1036 5 7 0.333333
r1037 3 5 0.04675
.ends

.subckt PM_falladderdd_Vdd 4 16 25 37 47 49 51 53 55 60 64 71 76 77 80 85 97 106
+ 118 128 130 132 134 136 141 145 148 152 157 158 161 166 178 187 199 209 211
+ 213 215 217 222 226 229 233 236 238 239 242 247 259 268 273 285 293 294 299
+ 309 313 330 331 333 335 337 340 344 362 366 367 370 371 374 375 378 379 382
+ 388 400 409 414 426 434 435 440 450 454 464 471 472 474 476 478 481 485 503
+ 507 508 511 512 515 516 519 520 523 549 550 553 555 556 560 566 567 572 573
+ 578 579 583 584 585 589 590 591 596
c677 590 Gnd 0.00187528f
c678 583 Gnd 1.01664e-19
c679 578 Gnd 5.63727e-21
c680 566 Gnd 2.32716e-20
c681 553 Gnd 1.75447e-19
c682 550 Gnd 1.93149e-20
c683 523 Gnd 0.00195413f
c684 519 Gnd 0.00195236f
c685 516 Gnd 1.62894e-19
c686 511 Gnd 8.79115e-21
c687 507 Gnd 0.00524999f
c688 503 Gnd 0.00513034f
c689 481 Gnd 2.20269e-19
c690 478 Gnd 8.43229e-21
c691 476 Gnd 1.60136e-19
c692 474 Gnd 0.0396408f
c693 472 Gnd 0.0403621f
c694 471 Gnd 5.7415e-19
c695 464 Gnd 1.75447e-19
c696 454 Gnd 1.43581e-20
c697 450 Gnd 1.59827e-19
c698 440 Gnd 2.01923e-20
c699 434 Gnd 3.0132e-19
c700 426 Gnd 2.46973e-19
c701 414 Gnd 7.85291e-20
c702 400 Gnd 1.41036e-19
c703 382 Gnd 0.00195413f
c704 378 Gnd 0.00195236f
c705 375 Gnd 1.62894e-19
c706 370 Gnd 8.12093e-21
c707 367 Gnd 1.91193e-19
c708 366 Gnd 0.00525114f
c709 362 Gnd 0.00513034f
c710 340 Gnd 2.20269e-19
c711 337 Gnd 7.88799e-21
c712 335 Gnd 3.22288e-19
c713 333 Gnd 0.0396408f
c714 331 Gnd 0.0403621f
c715 330 Gnd 5.33965e-19
c716 313 Gnd 1.43581e-20
c717 309 Gnd 1.59827e-19
c718 299 Gnd 2.01923e-20
c719 293 Gnd 3.00735e-19
c720 285 Gnd 2.46973e-19
c721 273 Gnd 7.85291e-20
c722 259 Gnd 1.41036e-19
c723 242 Gnd 0.01116f
c724 239 Gnd 0.00224102f
c725 236 Gnd 1.36888e-20
c726 233 Gnd 0.0116957f
c727 229 Gnd 0.00187528f
c728 226 Gnd 0.0048361f
c729 222 Gnd 4.99885e-19
c730 215 Gnd 3.77231e-19
c731 211 Gnd 0.0161371f
c732 209 Gnd 0.0161371f
c733 199 Gnd 1.21766e-19
c734 178 Gnd 1.21703e-19
c735 161 Gnd 0.01116f
c736 158 Gnd 0.00208566f
c737 152 Gnd 0.0108918f
c738 148 Gnd 0.00187528f
c739 145 Gnd 1.2453e-19
c740 141 Gnd 0.0179439f
c741 134 Gnd 3.77231e-19
c742 130 Gnd 0.0161371f
c743 128 Gnd 0.0557299f
c744 118 Gnd 1.21766e-19
c745 97 Gnd 1.21703e-19
c746 80 Gnd 0.0101533f
c747 77 Gnd 0.001889f
c748 76 Gnd 6.91518e-20
c749 71 Gnd 0.00901296f
c750 64 Gnd 1.2453e-19
c751 60 Gnd 4.99885e-19
c752 53 Gnd 3.77231e-19
c753 49 Gnd 0.0161371f
c754 47 Gnd 0.00771519f
c755 37 Gnd 1.21766e-19
c756 16 Gnd 1.21703e-19
c757 4 Gnd 1.30498e-25
r758 596 597 0.171005
r759 589 597 3.03716
r760 589 591 1.94257
r761 579 583 5.51514
r762 571 596 2
r763 571 573 0.259928
r764 571 572 0.259928
r765 560 585 0.116047
r766 560 584 4.29205
r767 556 573 3.00919
r768 555 578 4.29205
r769 553 572 3.37378
r770 550 567 6.46
r771 549 566 4.29205
r772 523 525 0.160315
r773 519 520 0.160315
r774 517 520 0.972222
r775 516 525 0.777778
r776 515 517 0.160051
r777 515 516 0.160051
r778 511 513 0.16469
r779 511 512 0.16469
r780 508 513 0.964744
r781 507 508 0.16469
r782 505 512 0.788462
r783 503 505 0.16469
r784 493 523 2
r785 492 519 2
r786 488 515 2
r787 485 488 0.0748308
r788 484 507 2
r789 482 484 0.0113222
r790 481 576 0.013546
r791 481 556 0.268332
r792 481 503 2
r793 480 511 2
r794 478 480 0.0743731
r795 477 478 0.110581
r796 476 485 0.109466
r797 476 477 6.09877
r798 474 576 0.053879
r799 472 482 0.0552518
r800 471 484 0.60351
r801 464 493 0.129518
r802 454 464 1
r803 450 492 0.119776
r804 440 450 1
r805 434 576 0.618114
r806 434 435 0.213995
r807 431 435 0.456
r808 430 474 0.337778
r809 428 431 0.333333
r810 426 428 0.04675
r811 423 430 0.333333
r812 414 423 0.0113636
r813 409 471 0.213995
r814 405 409 0.456
r815 404 472 0.358889
r816 402 405 0.333333
r817 400 402 0.04675
r818 397 404 0.333333
r819 388 397 0.0113636
r820 382 384 0.160315
r821 378 379 0.160315
r822 376 379 0.972222
r823 375 384 0.777778
r824 374 376 0.160051
r825 374 375 0.160051
r826 370 372 0.16469
r827 370 371 0.16469
r828 367 372 0.964744
r829 366 367 0.16469
r830 364 371 0.788462
r831 362 364 0.16469
r832 352 553 0.259816
r833 352 382 2
r834 351 378 2
r835 347 374 2
r836 344 347 0.0748308
r837 343 366 2
r838 341 343 0.0113222
r839 340 564 0.013546
r840 340 362 2
r841 339 370 2
r842 337 339 0.0743731
r843 336 337 0.110581
r844 335 344 0.109466
r845 335 336 6.09877
r846 333 564 0.053879
r847 331 341 0.0552518
r848 330 343 0.60351
r849 323 352 0.129518
r850 313 323 1
r851 309 351 0.119776
r852 299 309 1
r853 293 564 0.618114
r854 293 294 0.213995
r855 290 294 0.456
r856 289 333 0.337778
r857 287 290 0.333333
r858 285 287 0.04675
r859 282 289 0.333333
r860 273 282 0.0113636
r861 268 330 0.213995
r862 264 268 0.456
r863 263 331 0.358889
r864 261 264 0.333333
r865 259 261 0.04675
r866 256 263 0.333333
r867 247 256 0.0113636
r868 238 239 0.167776
r869 233 235 0.172675
r870 230 242 0.167776
r871 230 239 0.582237
r872 229 236 0.172669
r873 229 235 0.619863
r874 226 242 2
r875 226 227 0.0299213
r876 224 585 0.0730769
r877 224 238 2
r878 222 233 2
r879 222 223 0.0774823
r880 219 584 0.250159
r881 219 583 0.25991
r882 219 236 2
r883 217 226 0.227254
r884 215 227 0.111793
r885 215 216 0.394615
r886 213 216 0.213729
r887 211 223 0.0642304
r888 209 222 0.629965
r889 204 217 0.185778
r890 203 213 0.337778
r891 201 204 0.333333
r892 199 201 0.04675
r893 196 203 0.333333
r894 187 196 0.0113636
r895 183 211 0.185778
r896 182 209 0.333556
r897 180 183 0.333333
r898 178 180 0.04675
r899 175 182 0.333333
r900 166 175 0.0113636
r901 157 158 0.167776
r902 155 591 0.170989
r903 152 154 0.172675
r904 149 161 0.167776
r905 149 158 0.582237
r906 148 155 0.172679
r907 148 154 0.619863
r908 145 161 2
r909 145 146 0.0299213
r910 143 579 0.259928
r911 143 578 0.250328
r912 143 157 2
r913 141 152 2
r914 141 142 0.0774823
r915 138 555 0.250171
r916 138 550 0.259903
r917 138 155 2
r918 136 145 0.227254
r919 134 146 0.111793
r920 134 135 0.394615
r921 132 135 0.213729
r922 130 142 0.0642304
r923 128 141 0.629965
r924 123 136 0.185778
r925 122 132 0.337778
r926 120 123 0.333333
r927 118 120 0.04675
r928 115 122 0.333333
r929 106 115 0.0113636
r930 102 130 0.185778
r931 101 128 0.333556
r932 99 102 0.333333
r933 97 99 0.04675
r934 94 101 0.333333
r935 85 94 0.0113636
r936 76 77 0.167776
r937 74 590 0.172669
r938 73 590 0.619863
r939 71 73 0.172675
r940 68 80 0.167776
r941 68 77 0.582237
r942 64 80 2
r943 64 65 0.0299213
r944 62 567 0.259928
r945 62 566 0.250328
r946 62 76 2
r947 60 71 2
r948 60 61 0.0774823
r949 57 549 0.250206
r950 57 74 2
r951 55 64 0.227254
r952 53 65 0.111793
r953 53 54 0.394615
r954 51 54 0.213729
r955 49 61 0.0642304
r956 47 60 0.629965
r957 42 55 0.185778
r958 41 51 0.337778
r959 39 42 0.333333
r960 37 39 0.04675
r961 34 41 0.333333
r962 25 34 0.0113636
r963 21 49 0.185778
r964 20 47 0.333556
r965 18 21 0.333333
r966 16 18 0.04675
r967 13 20 0.333333
r968 4 13 0.0113636
.ends

.subckt PM_falladderdd_N_3 2 4 8 10 13 15 21 22 29 32 33 36 38 40 41 43 50 53 55
+ 58 59 70 73 74 78 82 83 86 95 96 98
c188 73 Gnd 9.1333e-20
c189 58 Gnd 5.05984e-20
c190 55 Gnd 1.1847e-19
c191 50 Gnd 1.23981e-19
c192 43 Gnd 1.21766e-19
c193 36 Gnd 2.77307e-19
c194 32 Gnd 1.73176e-19
c195 15 Gnd 2.23571e-19
c196 10 Gnd 1.2453e-19
c197 4 Gnd 1.13722e-19
r198 98 99 0.0557692
r199 91 99 0.0826736
r200 91 95 3.58108
r201 89 98 2
r202 86 89 0.0350769
r203 82 86 1.1
r204 82 83 0.200208
r205 76 78 0.140924
r206 73 75 0.134528
r207 73 74 18.8775
r208 71 74 0.137122
r209 71 83 0.41
r210 70 78 2.1822
r211 63 70 0.140924
r212 59 76 1.25
r213 59 75 1.675
r214 58 63 6.93
r215 55 57 0.00747384
r216 53 96 0.172675
r217 53 95 0.171005
r218 52 96 1.46918
r219 52 55 0.172707
r220 47 50 0.00576923
r221 45 55 2
r222 43 45 0.108824
r223 40 53 2
r224 40 41 0.250328
r225 36 47 2
r226 36 38 0.226331
r227 33 43 0.0889164
r228 32 41 2.37744
r229 29 32 0.213729
r230 26 57 2
r231 24 50 2
r232 22 24 0.167832
r233 21 26 0.167855
r234 21 22 2.89474
r235 17 29 0.443333
r236 15 17 0.333333
r237 13 15 0.046875
r238 12 33 0.304
r239 10 12 0.333333
r240 8 10 0.046875
r241 6 38 0.291333
r242 4 6 0.333333
r243 2 4 0.046875
.ends

.subckt PM_falladderdd_N_1 1 2 8 13 17 21 32 37 39 40 53 56 58 59 61 62 69 75 77
+ 78 81 85 90 91 94 95 100 102 104 108 114 120 123 129 132 134 137 156 158 159
+ 160 161 162 163 170 174 179 180 181 188 196 198 199
c380 199 Gnd 1.60726e-19
c381 198 Gnd 1.47277e-19
c382 196 Gnd 1.75709e-19
c383 181 Gnd 1.04823e-19
c384 180 Gnd 6.23669e-20
c385 137 Gnd 3.55957e-19
c386 129 Gnd 9.91107e-20
c387 114 Gnd 9.92291e-20
c388 108 Gnd 1.74777e-19
c389 104 Gnd 9.80162e-20
c390 94 Gnd 1.92065e-19
c391 91 Gnd 1.24771e-19
c392 85 Gnd 1.97933e-19
c393 81 Gnd 1.36447e-19
c394 78 Gnd 1.1821e-19
c395 75 Gnd 1.45573e-19
c396 69 Gnd 2.72467e-19
c397 62 Gnd 8.51407e-20
c398 61 Gnd 5.5158e-20
c399 59 Gnd 1.43581e-20
c400 56 Gnd 5.51546e-20
c401 40 Gnd 7.45708e-20
c402 39 Gnd 2.01923e-20
c403 37 Gnd 3.01137e-19
c404 32 Gnd 4.34211e-19
c405 21 Gnd 1.8913e-19
c406 17 Gnd 8.61952e-20
c407 13 Gnd 6.16926e-20
c408 8 Gnd 6.01076e-20
c409 1 Gnd 5.05984e-20
r410 199 201 0.0557692
r411 197 199 0.0826736
r412 197 198 8.37838
r413 191 201 2
r414 188 191 0.0292308
r415 183 184 0.195399
r416 178 188 1.1
r417 174 183 1.1
r418 174 176 0.194903
r419 167 180 0.0311236
r420 166 170 0.140924
r421 165 179 0.098477
r422 163 179 0.0339067
r423 162 178 0.200169
r424 161 179 0.098477
r425 161 162 4.72
r426 159 180 0.10163
r427 159 160 6.98077
r428 158 160 0.139682
r429 158 176 0.442308
r430 156 165 2.1822
r431 137 139 0.0659722
r432 134 136 0.171005
r433 132 137 0.0823025
r434 132 136 0.523649
r435 129 139 2
r436 126 134 2
r437 123 126 0.0116923
r438 120 123 1.1
r439 120 121 0.064781
r440 115 180 0.10163
r441 114 116 0.139836
r442 114 115 4.48113
r443 113 170 1.75424
r444 113 121 0.0896409
r445 108 116 0.755
r446 107 129 0.457054
r447 106 107 1
r448 104 106 0.222691
r449 102 167 0.95
r450 100 102 3.075
r451 100 166 1.94
r452 97 196 0.159947
r453 97 198 0.173321
r454 94 96 0.160315
r455 94 95 0.160315
r456 92 95 4.15741
r457 91 196 1.01235
r458 90 92 0.160315
r459 90 91 0.160315
r460 85 86 0.0406977
r461 81 83 0.166216
r462 78 83 0.652597
r463 77 78 0.166216
r464 75 99 0.160333
r465 75 96 1.09568
r466 69 88 0.156355
r467 68 86 0.0815528
r468 68 69 0.505952
r469 65 181 0.248374
r470 65 97 2
r471 64 94 2
r472 62 64 0.0719077
r473 61 183 0.0298154
r474 61 99 2
r475 58 90 2
r476 58 59 0.248646
r477 56 181 1.20734
r478 53 59 1.9962
r479 51 81 2
r480 51 53 0.247477
r481 49 88 2
r482 40 49 0.231158
r483 39 62 0.0964818
r484 39 40 1.84759
r485 37 77 2
r486 32 85 2
r487 24 56 0.191166
r488 23 24 1
r489 21 23 0.222691
r490 20 184 1.26527
r491 19 20 1
r492 17 19 0.222691
r493 16 37 0.00116923
r494 15 16 1
r495 13 15 0.222226
r496 11 32 0.00701538
r497 10 11 1
r498 8 10 0.222226
r499 6 156 0.140924
r500 2 163 1.25
r501 1 6 6.93
.ends

.subckt PM_falladderdd_N_2 2 4 8 10 13 15 21 22 29 32 33 36 38 40 41 43 50 55 58
+ 59 63 64 72 78 79 84 89 92 95
c139 50 Gnd 1.11387e-19
c140 43 Gnd 1.21766e-19
c141 36 Gnd 2.76623e-19
c142 32 Gnd 1.73176e-19
c143 15 Gnd 2.23571e-19
c144 10 Gnd 1.2453e-19
c145 4 Gnd 1.13722e-19
r146 92 98 0.179662
r147 91 95 0.0845051
r148 91 92 0.554795
r149 86 98 2
r150 86 89 0.0292308
r151 82 89 1.1
r152 79 82 0.0672727
r153 78 84 0.107617
r154 75 84 0.107617
r155 73 79 0.107864
r156 72 84 0.0260522
r157 72 73 6.70588
r158 65 78 0.545
r159 63 65 0.1397
r160 63 64 1.88725
r161 62 64 0.1397
r162 59 75 1.9
r163 58 62 1.25
r164 55 57 0.00747384
r165 53 95 0.0526923
r166 52 98 0.514134
r167 52 55 0.172707
r168 47 50 0.00576923
r169 45 55 2
r170 43 45 0.108824
r171 40 53 2
r172 40 41 0.250328
r173 36 47 2
r174 36 38 0.226331
r175 33 43 0.0889164
r176 32 41 2.37744
r177 29 32 0.213729
r178 26 57 2
r179 24 50 2
r180 22 24 0.167832
r181 21 26 0.167855
r182 21 22 2.89474
r183 17 29 0.443333
r184 15 17 0.333333
r185 13 15 0.046875
r186 12 33 0.304
r187 10 12 0.333333
r188 8 10 0.046875
r189 6 38 0.291333
r190 4 6 0.333333
r191 2 4 0.046875
.ends

.subckt PM_falladderdd_sum 2 7 11 15 26 31 33 34 47 50 52 53 55 56 63 69 71 72
+ 75 79 84 85 88 102 107 110
c157 110 Gnd 1.68022e-19
c158 102 Gnd 1.18512e-19
c159 88 Gnd 1.92065e-19
c160 85 Gnd 1.24771e-19
c161 79 Gnd 1.97933e-19
c162 75 Gnd 1.36447e-19
c163 72 Gnd 1.1821e-19
c164 69 Gnd 1.45573e-19
c165 63 Gnd 2.72467e-19
c166 56 Gnd 8.51407e-20
c167 55 Gnd 5.5158e-20
c168 53 Gnd 1.43581e-20
c169 50 Gnd 5.51546e-20
c170 34 Gnd 7.45708e-20
c171 33 Gnd 2.01923e-20
c172 31 Gnd 3.01137e-19
c173 26 Gnd 4.34211e-19
c174 15 Gnd 1.8913e-19
c175 11 Gnd 8.61952e-20
c176 7 Gnd 6.16926e-20
c177 2 Gnd 6.01076e-20
r178 91 110 0.159947
r179 89 107 3.02469
r180 88 90 0.160315
r181 88 89 0.160315
r182 86 107 1.13272
r183 85 110 1.01235
r184 84 86 0.160315
r185 84 85 0.160315
r186 79 80 0.0406977
r187 75 77 0.166216
r188 72 77 0.652597
r189 71 72 0.166216
r190 69 93 0.160333
r191 69 90 1.09568
r192 63 82 0.156355
r193 62 80 0.0815528
r194 62 63 0.505952
r195 59 102 0.248374
r196 59 91 2
r197 58 88 2
r198 56 58 0.0719077
r199 55 104 0.225214
r200 55 93 2
r201 52 84 2
r202 52 53 0.248646
r203 50 102 1.20734
r204 47 53 1.9962
r205 45 75 2
r206 45 47 0.247477
r207 43 82 2
r208 34 43 0.231158
r209 33 56 0.0964818
r210 33 34 1.84759
r211 31 71 2
r212 26 79 2
r213 18 50 0.191166
r214 17 18 1
r215 15 17 0.222691
r216 14 104 1.26527
r217 13 14 1
r218 11 13 0.222691
r219 10 31 0.00116923
r220 9 10 1
r221 7 9 0.222226
r222 5 26 0.00701538
r223 4 5 1
r224 2 4 0.222226
.ends

.subckt PM_falladderdd_A 1 2 6 7 9 11 13 17 23 29 32 38 41 43 46 57 61 62 63 64
+ 72 75
c168 75 Gnd 1.91193e-19
c169 72 Gnd 1.62152e-19
c170 62 Gnd 1.30498e-25
c171 57 Gnd 1.76343e-20
c172 46 Gnd 3.55957e-19
c173 38 Gnd 9.91107e-20
c174 23 Gnd 9.92291e-20
c175 17 Gnd 1.74777e-19
c176 13 Gnd 9.80162e-20
r177 72 75 0.098477
r178 67 75 0.0339067
r179 63 75 0.098477
r180 63 64 2.515
r181 61 65 0.139682
r182 61 62 0.985
r183 59 64 0.139682
r184 58 62 0.139682
r185 57 59 9.7
r186 57 58 0.99
r187 46 48 0.0659722
r188 43 45 0.171005
r189 41 46 0.0823025
r190 41 45 0.523649
r191 38 48 2
r192 35 43 2
r193 32 35 0.0116923
r194 29 32 1.1
r195 29 30 0.064781
r196 24 70 0.00783639
r197 23 25 0.139836
r198 23 24 4.48113
r199 22 72 1.75424
r200 22 30 0.0896409
r201 17 25 0.755
r202 16 38 0.457054
r203 15 16 1
r204 13 15 0.222691
r205 11 70 1.082
r206 9 11 3.075
r207 9 67 1.94
r208 6 8 0.1397
r209 6 7 1.88725
r210 5 7 0.1397
r211 2 8 2.7
r212 1 65 1.785
r213 1 5 1.25
.ends

.subckt PM_falladderdd_B 1 2 7 9 10 11 20 21 22 31 34 42 43 46 57 58 62 63 64 66
+ 70 71
c153 71 Gnd 1.07759e-19
c154 70 Gnd 6.17296e-20
c155 64 Gnd 5.54233e-20
c156 46 Gnd 2.44415e-19
c157 42 Gnd 1.8244e-19
c158 34 Gnd 1.60333e-19
c159 31 Gnd 4.83496e-19
c160 20 Gnd 3.50113e-20
c161 11 Gnd 5.51546e-20
c162 10 Gnd 1.82149e-19
c163 9 Gnd 7.88799e-21
c164 1 Gnd 5.05984e-20
r165 70 71 0.105861
r166 67 71 0.0275115
r167 64 66 0.140924
r168 62 71 0.105861
r169 62 63 3.18
r170 59 63 0.139682
r171 58 66 2.1822
r172 57 67 1.915
r173 46 48 0.148517
r174 43 48 0.316667
r175 42 43 0.149287
r176 37 46 2
r177 34 37 0.00584615
r178 31 42 2
r179 27 34 1.1
r180 21 23 0.139682
r181 21 22 3.665
r182 20 70 0.695
r183 20 27 0.200572
r184 19 22 0.139682
r185 14 31 0.0496923
r186 13 14 1
r187 11 13 0.222226
r188 10 23 2.265
r189 9 59 1.18
r190 7 19 2.335
r191 7 9 3.075
r192 6 58 0.140924
r193 2 64 1.25
r194 1 57 2.965
r195 1 6 6.93
.ends

.subckt PM_falladderdd_cin 1 2 6 7 9 11 12 13 22 23 24 33 36 44 45 48 59 63 64
+ 70 71
c141 71 Gnd 1.40257e-19
c142 70 Gnd 6.17296e-20
c143 48 Gnd 1.36447e-19
c144 44 Gnd 2.73603e-19
c145 36 Gnd 1.60333e-19
c146 33 Gnd 4.83496e-19
c147 22 Gnd 4.78805e-20
c148 13 Gnd 5.51546e-20
c149 12 Gnd 1.82149e-19
c150 11 Gnd 8.43229e-21
c151 1 Gnd 1.93149e-20
r152 70 71 0.105861
r153 67 71 0.0275115
r154 63 71 0.105861
r155 63 64 4.22
r156 60 64 0.139682
r157 59 60 2.035
r158 48 50 0.148517
r159 45 50 0.316667
r160 44 45 0.149287
r161 39 48 2
r162 36 39 0.00584615
r163 33 44 2
r164 29 36 1.1
r165 23 25 0.139682
r166 23 24 3.665
r167 22 70 4.12
r168 22 29 0.200572
r169 21 24 0.139682
r170 16 33 0.0496923
r171 15 16 1
r172 13 15 0.222226
r173 12 25 2.265
r174 11 67 1.175
r175 9 21 2.335
r176 9 11 3.075
r177 6 8 0.1397
r178 6 7 1.88725
r179 5 7 0.1397
r180 2 8 2.7
r181 1 59 2.85
r182 1 5 1.25
.ends

.subckt PM_falladderdd_cout 2 4 8 10 13 15 21 22 29 32 33 36 38 40 41 43 50 55
+ 60 65
c90 50 Gnd 1.22677e-19
c91 43 Gnd 1.21766e-19
c92 36 Gnd 1.29346e-19
c93 32 Gnd 1.73176e-19
c94 15 Gnd 2.23571e-19
c95 10 Gnd 1.2453e-19
c96 4 Gnd 1.13722e-19
r97 61 65 0.0845051
r98 60 61 0.736301
r99 55 57 0.00747384
r100 53 65 0.0526923
r101 52 60 0.732877
r102 52 55 0.172707
r103 47 50 0.00576923
r104 45 55 2
r105 43 45 0.108824
r106 40 53 2
r107 40 41 0.250328
r108 36 47 2
r109 36 38 0.226331
r110 33 43 0.0889164
r111 32 41 2.37744
r112 29 32 0.213729
r113 26 57 2
r114 24 50 2